LTspice 24.0.12 for Windows
Circuit: * D:\Study\5th Semester\LAB EEE 512\Experiments\02\LTSPICE\DTL Circuit.asc
Start Time: Wed Jan 14 23:01:03 2026
solver = Normal
Maximum thread count: 12
tnom = 27
temp = 27
method = modified trap
Direct Newton iteration for .op point succeeded.
Total elapsed time: 6.591 seconds.

